
**** 01/23/18 18:56:04 ********* PSpice 9.2 (Mar 2000) ******** ID# 0 ********

 ** Profile: "SCHEMATIC1-parham"  [ d:\documents\polytechnic\term 3\electrical circuits lab\final\final-SCHEMATIC1-parham.sim ] 


 ****     CIRCUIT DESCRIPTION


******************************************************************************




** Creating circuit file "final-SCHEMATIC1-parham.sim.cir" 
** WARNING: THIS AUTOMATICALLY GENERATED FILE MAY BE OVERWRITTEN BY SUBSEQUENT SIMULATIONS

*Libraries: 
* Local Libraries :
* From [PSPICE NETLIST] section of C:\Program Files\Orcad\PSpice\PSpice.ini file:
.lib "nom.lib" 

*Analysis directives: 
.TRAN  0 1000ms 0 1ms 
.PROBE V(*) I(*) W(*) D(*) NOISE(*) 
.INC ".\final-SCHEMATIC1.net" 



**** INCLUDING final-SCHEMATIC1.net ****
* source FINAL
V_V111         N16844 0  
+SIN 0 1m 20 0 0 0
V_V8         0 N18832 5Vdc
X_U7         N16844 N16775 N17066 N17027 OUT1 0 N16656 N16702 AD620/AD
C_C3         OUT2 N01660  100n  
V_V5         N17895 0 5Vdc
R_R2         OUT 0  1k  
V_V7         N18900 0 5Vdc
R_R1         N16702 N16656  100  
V_V6         0 N17719 5Vdc
R_R5         0 N01660  16.5k  
V_V3         N17066 0 5Vdc
V_V4         0 N17027 5Vdc
R_R3         OUT1 N01588  33k  
R_R4         N01588 OUT2  33k  
V_V113         N16775 0  
+SIN 0 1m 30 0 0 0
C_C1         0 N01588  200n  
X_R8    N24973 0 N18900 SCHEMATIC1_R8 
C_C2         N01660 OUT1  100n  
X_U4         N24973 N17952 N18900 N18832 OUT LM741
X_U8A         OUT2 N17952 N17895 N17719 N17952 LM358

.subckt SCHEMATIC1_R8 1 2 t  
RT_R8         1 t {(10K*(1-0.5))+.001}
RB_R8         t 2 {(10K*0.5)+.001}
.ends SCHEMATIC1_R8

**** RESUMING final-SCHEMATIC1-parham.sim.cir ****
.END

**** 01/23/18 18:56:04 ********* PSpice 9.2 (Mar 2000) ******** ID# 0 ********

 ** Profile: "SCHEMATIC1-parham"  [ d:\documents\polytechnic\term 3\electrical circuits lab\final\final-SCHEMATIC1-parham.sim ] 


 ****     Diode MODEL PARAMETERS


******************************************************************************




               X_U7.DX         X_U7.DY         X_U4.x_lm741.dx X_U4.x_lm741.dy 
          IS    1.000000E-12    1.000000E-12  800.000000E-18  800.000000E-18 
          BV                   50                                            
          RS                                    1               1.000000E-03 
         CJO                                                   10.000000E-12 


               X_U8A.x_lm358.dx 
          IS  800.000000E-18 
          RS    1            


               X_U8A.x_lm358.dy 
          IS  800.000000E-18 
          RS    1.000000E-03 
         CJO   10.000000E-12 


**** 01/23/18 18:56:04 ********* PSpice 9.2 (Mar 2000) ******** ID# 0 ********

 ** Profile: "SCHEMATIC1-parham"  [ d:\documents\polytechnic\term 3\electrical circuits lab\final\final-SCHEMATIC1-parham.sim ] 


 ****     BJT MODEL PARAMETERS


******************************************************************************




               X_U7.QN1        X_U7.QN2        X_U4.x_lm741.qx 
               NPN             NPN             NPN             
          IS  100.000000E-18  100.000000E-18  800.000000E-18 
          BF   10.000000E+03  250              93.75         
          NF    1               1               1            
          BR    1               1               1            
          NR    1               1               1            
          KF  700.000000E-18    5.000000E-15                 
          CN    2.42            2.42            2.42         
           D     .87             .87             .87         


               X_U8A.x_lm358.qx 
               PNP             
          IS  800.000000E-18 
          BF  166.7          
          NF    1            
          BR    1            
          NR    1            
          CN    2.2          
           D     .52         


**** 01/23/18 18:56:04 ********* PSpice 9.2 (Mar 2000) ******** ID# 0 ********

 ** Profile: "SCHEMATIC1-parham"  [ d:\documents\polytechnic\term 3\electrical circuits lab\final\final-SCHEMATIC1-parham.sim ] 


 ****     Current Controlled Switch MODEL PARAMETERS


******************************************************************************




               X_U8A.x_lm358.sw2 
         RON    1            
        ROFF   10.000000E+06 
         ION    0            
        IOFF   -1.000000E-06 


               X_U8A.x_lm358.sw1 
         RON    1            
        ROFF   10.000000E+06 
         ION   -1.000000E-06 
        IOFF    0            


               X_U8A.x_lm358.sw3 
         RON    1            
        ROFF   10.000000E+06 
         ION   -1.000000E-06 
        IOFF    0            


               X_U8A.x_lm358.sw4 
         RON    1            
        ROFF   10.000000E+06 
         ION    0            
        IOFF   -1.000000E-06 


**** 01/23/18 18:56:04 ********* PSpice 9.2 (Mar 2000) ******** ID# 0 ********

 ** Profile: "SCHEMATIC1-parham"  [ d:\documents\polytechnic\term 3\electrical circuits lab\final\final-SCHEMATIC1-parham.sim ] 


 ****     INITIAL TRANSIENT SOLUTION       TEMPERATURE =   27.000 DEG C


******************************************************************************



 NODE   VOLTAGE     NODE   VOLTAGE     NODE   VOLTAGE     NODE   VOLTAGE


(  OUT)    4.8130  ( OUT1)     .0076  ( OUT2)     .0105  (N01588)     .0090     

(N01660)    0.0000 (N16656)    -.6372 (N16702)    -.6372 (N16775)    0.0000     

(N16844)    0.0000 (N17027)   -5.0000 (N17066)    5.0000 (N17719)   -5.0000     

(N17895)    5.0000 (N17952)     .0103 (N18832)   -5.0000 (N18900)    5.0000     

(N24973)    4.9992 (X_U7.3)-258.9E-09 (X_U7.4)-138.9E-09 (X_U7.5)    4.5000     

(X_U7.6)    4.5000 (X_U7.9)    -.6408 (X_U7.10)    -.6335                       

(X_U7.11)    4.5000                   (X_U7.12)    4.9524                       

(X_U7.13)    -.3167                   (X_U7.14)    -.9358                       

(X_U7.15)    4.9524                   (X_U7.16)    -.3167                       

(X_U7.17)    -.9358                   (X_U7.18)    -.9577                       

(X_U7.19)    -.6333                   (X_U7.21) 14.74E-06                       

(X_U7.25)     .0036                   (X_U7.26)    3.4700                       

(X_U7.27)   -3.6700                   (X_U7.36)    0.0000                       

(X_U7.38)    0.0000                   (X_U7.40)     .0036                       

(X_U7.41)    1.6576                   (X_U7.42)   -1.6424                       

(X_U7.43)   45.3100                   (X_U7.44)    4.5712                       

(X_U7.45)     .0076                   (X_U7.51)    4.3000                       

(X_U7.52)    4.3000                   (X_U7.53)   -4.3000                       

(X_U7.54)   -4.3000                   (X_U7.98)    0.0000                       

(X_U4.x_lm741.6)   -1.5301            (X_U4.x_lm741.7)    6.8434                

(X_U4.x_lm741.8)    6.8434            (X_U4.x_lm741.9)    0.0000                

(X_U4.x_lm741.10)    4.3584           (X_U4.x_lm741.11)    5.0000               

(X_U4.x_lm741.12)    4.9187           (X_U4.x_lm741.13)    4.3584               

(X_U4.x_lm741.14)    4.3868           (X_U4.x_lm741.53)    4.0000               

(X_U4.x_lm741.54)   -4.0000           (X_U4.x_lm741.90)   40.6070               

(X_U4.x_lm741.91)   40.0000           (X_U4.x_lm741.92)  -40.0000               

(X_U4.x_lm741.99)    0.0000           (X_U8A.x_lm358.6)-1.945E-06               

(X_U8A.x_lm358.7)     .0103           (X_U8A.x_lm358.8)     .0103               

(X_U8A.x_lm358.9)    0.0000           (X_U8A.x_lm358.a)    5.0000               

(X_U8A.x_lm358.b)-555.0E-09           (X_U8A.x_lm358.10)     .6181              

(X_U8A.x_lm358.11)   -4.9602          (X_U8A.x_lm358.12)   -4.9604              

(X_U8A.x_lm358.13)     .6042          (X_U8A.x_lm358.14)     .6042              

(X_U8A.x_lm358.53)    3.5000          (X_U8A.x_lm358.54)   -4.1780              

(X_U8A.x_lm358.90)-44.96E-06          (X_U8A.x_lm358.91)   40.0000              

(X_U8A.x_lm358.92)  -40.0000          (X_U8A.x_lm358.99)    0.0000          




    VOLTAGE SOURCE CURRENTS
    NAME         CURRENT

    V_V111      -6.471E-10
    V_V8        -5.658E-04
    V_V5        -1.117E-03
    V_V7         3.423E-02
    V_V6        -1.117E-03
    V_V3        -8.187E-04
    V_V4        -8.504E-04
    V_V113      -3.471E-10
    X_U7.VIOS   -4.971E-10
    X_U7.V1     -5.000E-04
    X_U7.V2      5.617E-12
    X_U7.V3      5.617E-12
    X_U7.V12     4.983E-12
    X_U7.V13     4.983E-12
    X_U7.V6      4.466E-12
    X_U7.V7      4.674E-12
    X_U7.V4     -2.654E-12
    X_U7.V5     -2.646E-12
    X_U4.x_lm741.vb  -1.530E-05
    X_U4.x_lm741.vc  -3.579E-02
    X_U4.x_lm741.ve   8.906E-12
    X_U4.x_lm741.vlim   4.061E-02
    X_U4.x_lm741.vlp   1.264E-05
    X_U4.x_lm741.vln  -8.061E-11
    X_U8A.x_lm358.vb  -1.945E-11
    X_U8A.x_lm358.vc   3.490E-12
    X_U8A.x_lm358.ve   4.558E-12
    X_U8A.x_lm358.vlim  -4.496E-08
    X_U8A.x_lm358.vlp  -4.000E-11
    X_U8A.x_lm358.vln  -4.000E-11

    TOTAL POWER DISSIPATION  -1.13E-01  WATTS


ERROR -- Convergence problem in transient analysis at Time =  .051
         Time step =  465.7E-15, minimum allowable step size =  1.000E-12

  These voltages failed to converge:

    V(X_U7.43)                =     4.718V  \     4.709V

  These devices failed to converge:
    X_U7.D10  X_U7.D11  



  Last node voltages tried were:

 NODE   VOLTAGE     NODE   VOLTAGE     NODE   VOLTAGE     NODE   VOLTAGE


(  OUT)    4.8130  ( OUT1)     .1971  ( OUT2)    -.2730  (N01588)    -.2614     

(N01660)     .2234 (N16656)    -.6374 (N16702)    -.6370 (N16775)-230.2E-06     

(N16844) 154.2E-06 (N17027)   -5.0000 (N17066)    5.0000 (N17719)   -5.0000     

(N17895)    5.0000 (N17952)    -.2740 (N18832)   -5.0000 (N18900)    5.0000     

(N24973)    4.9992 (X_U7.3) 154.0E-06 (X_U7.4)-230.3E-06 (X_U7.5)    4.5000     

(X_U7.6)    4.5000 (X_U7.9)    -.7352 (X_U7.10)    -.5392                       

(X_U7.11)    4.5000                   (X_U7.12)    4.9524                       

(X_U7.13)    -.2691                   (X_U7.14)    -.8884                       

(X_U7.15)    4.9524                   (X_U7.16)    -.2695                       

(X_U7.17)    -.8886                   (X_U7.18)    -.9104                       

(X_U7.19)    -.5390                   (X_U7.21) 169.0E-06                       

(X_U7.25)     .1963                   (X_U7.26)    3.4700                       

(X_U7.27)   -3.6700                   (X_U7.36)-37.98E-06                       

(X_U7.38)-85.16E-12                   (X_U7.40)     .1963                       

(X_U7.41)    1.8463                   (X_U7.42)   -1.4537                       

(X_U7.43)    4.7183                   (X_U7.44)   45.1600                       

(X_U7.45)     .1963                   (X_U7.51)    4.3000                       

(X_U7.52)    4.3000                   (X_U7.53)   -4.3000                       

(X_U7.54)   -4.3000                   (X_U7.98)    0.0000                       

(X_U4.x_lm741.6)   -1.5301            (X_U4.x_lm741.7)    6.8434                

(X_U4.x_lm741.8)    6.8434            (X_U4.x_lm741.9)    0.0000                

(X_U4.x_lm741.10)    4.3584           (X_U4.x_lm741.11)    5.0000               

(X_U4.x_lm741.12)    4.9187           (X_U4.x_lm741.13)    4.3584               

(X_U4.x_lm741.14)    4.3868           (X_U4.x_lm741.53)    4.0000               

(X_U4.x_lm741.54)   -4.0000           (X_U4.x_lm741.90)   40.6070               

(X_U4.x_lm741.91)   40.0000           (X_U4.x_lm741.92)  -40.0000               

(X_U4.x_lm741.99)    0.0000           (X_U8A.x_lm358.6) 51.64E-06               

(X_U8A.x_lm358.7)    -.2740           (X_U8A.x_lm358.8)    -.2740               

(X_U8A.x_lm358.9)    0.0000           (X_U8A.x_lm358.a)    5.0000               

(X_U8A.x_lm358.b)-554.3E-09           (X_U8A.x_lm358.10)     .3342              

(X_U8A.x_lm358.11)   -4.9602          (X_U8A.x_lm358.12)   -4.9603              

(X_U8A.x_lm358.13)     .3202          (X_U8A.x_lm358.14)     .3205              

(X_U8A.x_lm358.53)    3.5000          (X_U8A.x_lm358.54)   -4.1780              

(X_U8A.x_lm358.90)-44.79E-06          (X_U8A.x_lm358.91)   40.0000              

(X_U8A.x_lm358.92)  -40.0000          (X_U8A.x_lm358.99)    0.0000          


 **** Runtime Parameters
                              
      ABSTOL =      1.0000E-12
        GMIN =      1.0000E-12
        ITL1 =      1.5000E+02
        ITL2 =      2.0000E+01
        ITL4 =      1.0000E+01
      RELTOL =      1.0000E-03
      RUNFOR =      0.0000E+00
        TMAX =      1.0000E-03
       TSTOP =      1.0000E+00
       VNTOL =      1.0000E-06
              
               

ERROR -- Convergence problem in transient analysis at Time =  .051
         Time step =  465.7E-15, minimum allowable step size =  1.000E-12

  These voltages failed to converge:

    V(X_U7.43)                =     4.718V  \     4.709V

  These devices failed to converge:
    X_U7.D10  X_U7.D11  



  Last node voltages tried were:

 NODE   VOLTAGE     NODE   VOLTAGE     NODE   VOLTAGE     NODE   VOLTAGE


(  OUT)    4.8130  ( OUT1)     .1971  ( OUT2)    -.2730  (N01588)    -.2614     

(N01660)     .2234 (N16656)    -.6374 (N16702)    -.6370 (N16775)-230.2E-06     

(N16844) 154.2E-06 (N17027)   -5.0000 (N17066)    5.0000 (N17719)   -5.0000     

(N17895)    5.0000 (N17952)    -.2740 (N18832)   -5.0000 (N18900)    5.0000     

(N24973)    4.9992 (X_U7.3) 154.0E-06 (X_U7.4)-230.3E-06 (X_U7.5)    4.5000     

(X_U7.6)    4.5000 (X_U7.9)    -.7352 (X_U7.10)    -.5392                       

(X_U7.11)    4.5000                   (X_U7.12)    4.9524                       

(X_U7.13)    -.2691                   (X_U7.14)    -.8884                       

(X_U7.15)    4.9524                   (X_U7.16)    -.2695                       

(X_U7.17)    -.8886                   (X_U7.18)    -.9104                       

(X_U7.19)    -.5390                   (X_U7.21) 169.0E-06                       

(X_U7.25)     .1963                   (X_U7.26)    3.4700                       

(X_U7.27)   -3.6700                   (X_U7.36)-37.98E-06                       

(X_U7.38)-85.16E-12                   (X_U7.40)     .1963                       

(X_U7.41)    1.8463                   (X_U7.42)   -1.4537                       

(X_U7.43)    4.7183                   (X_U7.44)   45.1600                       

(X_U7.45)     .1963                   (X_U7.51)    4.3000                       

(X_U7.52)    4.3000                   (X_U7.53)   -4.3000                       

(X_U7.54)   -4.3000                   (X_U7.98)    0.0000                       

(X_U4.x_lm741.6)   -1.5301            (X_U4.x_lm741.7)    6.8434                

(X_U4.x_lm741.8)    6.8434            (X_U4.x_lm741.9)    0.0000                

(X_U4.x_lm741.10)    4.3584           (X_U4.x_lm741.11)    5.0000               

(X_U4.x_lm741.12)    4.9187           (X_U4.x_lm741.13)    4.3584               

(X_U4.x_lm741.14)    4.3868           (X_U4.x_lm741.53)    4.0000               

(X_U4.x_lm741.54)   -4.0000           (X_U4.x_lm741.90)   40.6070               

(X_U4.x_lm741.91)   40.0000           (X_U4.x_lm741.92)  -40.0000               

(X_U4.x_lm741.99)    0.0000           (X_U8A.x_lm358.6) 51.64E-06               

(X_U8A.x_lm358.7)    -.2740           (X_U8A.x_lm358.8)    -.2740               

(X_U8A.x_lm358.9)    0.0000           (X_U8A.x_lm358.a)    5.0000               

(X_U8A.x_lm358.b)-554.3E-09           (X_U8A.x_lm358.10)     .3342              

(X_U8A.x_lm358.11)   -4.9602          (X_U8A.x_lm358.12)   -4.9603              

(X_U8A.x_lm358.13)     .3202          (X_U8A.x_lm358.14)     .3205              

(X_U8A.x_lm358.53)    3.5000          (X_U8A.x_lm358.54)   -4.1780              

(X_U8A.x_lm358.90)-44.79E-06          (X_U8A.x_lm358.91)   40.0000              

(X_U8A.x_lm358.92)  -40.0000          (X_U8A.x_lm358.99)    0.0000          


 **** Runtime Parameters
                              
      ABSTOL =      1.0000E-12
        GMIN =      1.0000E-12
        ITL1 =      1.5000E+02
        ITL2 =      2.0000E+01
        ITL4 =      1.0000E+01
      RELTOL =      1.0000E-03
      RUNFOR =      0.0000E+00
        TMAX =      1.0000E-03
       TSTOP =      1.0000E+00
       VNTOL =      1.0000E-06
              
               

ERROR -- Convergence problem in transient analysis at Time =  .051
         Time step =  465.7E-15, minimum allowable step size =  1.000E-12

  These voltages failed to converge:

    V(X_U7.43)                =     4.718V  \     4.709V

  These devices failed to converge:
    X_U7.D10  X_U7.D11  



  Last node voltages tried were:

 NODE   VOLTAGE     NODE   VOLTAGE     NODE   VOLTAGE     NODE   VOLTAGE


(  OUT)    4.8130  ( OUT1)     .1971  ( OUT2)    -.2730  (N01588)    -.2614     

(N01660)     .2234 (N16656)    -.6374 (N16702)    -.6370 (N16775)-230.2E-06     

(N16844) 154.2E-06 (N17027)   -5.0000 (N17066)    5.0000 (N17719)   -5.0000     

(N17895)    5.0000 (N17952)    -.2740 (N18832)   -5.0000 (N18900)    5.0000     

(N24973)    4.9992 (X_U7.3) 154.0E-06 (X_U7.4)-230.3E-06 (X_U7.5)    4.5000     

(X_U7.6)    4.5000 (X_U7.9)    -.7352 (X_U7.10)    -.5392                       

(X_U7.11)    4.5000                   (X_U7.12)    4.9524                       

(X_U7.13)    -.2691                   (X_U7.14)    -.8884                       

(X_U7.15)    4.9524                   (X_U7.16)    -.2695                       

(X_U7.17)    -.8886                   (X_U7.18)    -.9104                       

(X_U7.19)    -.5390                   (X_U7.21) 169.0E-06                       

(X_U7.25)     .1963                   (X_U7.26)    3.4700                       

(X_U7.27)   -3.6700                   (X_U7.36)-37.98E-06                       

(X_U7.38)-85.16E-12                   (X_U7.40)     .1963                       

(X_U7.41)    1.8463                   (X_U7.42)   -1.4537                       

(X_U7.43)    4.7183                   (X_U7.44)   45.1600                       

(X_U7.45)     .1963                   (X_U7.51)    4.3000                       

(X_U7.52)    4.3000                   (X_U7.53)   -4.3000                       

(X_U7.54)   -4.3000                   (X_U7.98)    0.0000                       

(X_U4.x_lm741.6)   -1.5301            (X_U4.x_lm741.7)    6.8434                

(X_U4.x_lm741.8)    6.8434            (X_U4.x_lm741.9)    0.0000                

(X_U4.x_lm741.10)    4.3584           (X_U4.x_lm741.11)    5.0000               

(X_U4.x_lm741.12)    4.9187           (X_U4.x_lm741.13)    4.3584               

(X_U4.x_lm741.14)    4.3868           (X_U4.x_lm741.53)    4.0000               

(X_U4.x_lm741.54)   -4.0000           (X_U4.x_lm741.90)   40.6070               

(X_U4.x_lm741.91)   40.0000           (X_U4.x_lm741.92)  -40.0000               

(X_U4.x_lm741.99)    0.0000           (X_U8A.x_lm358.6) 51.64E-06               

(X_U8A.x_lm358.7)    -.2740           (X_U8A.x_lm358.8)    -.2740               

(X_U8A.x_lm358.9)    0.0000           (X_U8A.x_lm358.a)    5.0000               

(X_U8A.x_lm358.b)-554.3E-09           (X_U8A.x_lm358.10)     .3342              

(X_U8A.x_lm358.11)   -4.9602          (X_U8A.x_lm358.12)   -4.9603              

(X_U8A.x_lm358.13)     .3202          (X_U8A.x_lm358.14)     .3205              

(X_U8A.x_lm358.53)    3.5000          (X_U8A.x_lm358.54)   -4.1780              

(X_U8A.x_lm358.90)-44.79E-06          (X_U8A.x_lm358.91)   40.0000              

(X_U8A.x_lm358.92)  -40.0000          (X_U8A.x_lm358.99)    0.0000          

