
**** 10/26/17 13:08:30 ********* PSpice 9.2 (Mar 2000) ******** ID# 0 ********

 ** Profile: "SCHEMATIC1-AZ4Q31"  [ D:\DOCUMENTS\POLYTECHNIC\TERM 3\ELECTRICAL CIRCUITS LAB\AZ4\AZ4 Q3\az4q3-SCHEMATIC1-AZ4Q31.sim ] 


 ****     CIRCUIT DESCRIPTION


******************************************************************************




** Creating circuit file "az4q3-SCHEMATIC1-AZ4Q31.sim.cir" 
** WARNING: THIS AUTOMATICALLY GENERATED FILE MAY BE OVERWRITTEN BY SUBSEQUENT SIMULATIONS

*Libraries: 
* Local Libraries :
* From [PSPICE NETLIST] section of C:\Program Files\Orcad\PSpice\PSpice.ini file:
.lib "nom.lib" 

*Analysis directives: 
.AC DEC 1000 1Hz 100kHz
.PROBE V(*) I(*) W(*) D(*) NOISE(*) 
.INC ".\az4q3-SCHEMATIC1.net" 



**** INCLUDING az4q3-SCHEMATIC1.net ****
* source AZ4Q3
V_V1         N00147 0 DC 0Vdc AC 10Vac 
R_R1         N00147 N00181  1k  
L_L1         0 N00181  40mH  

**** RESUMING az4q3-SCHEMATIC1-AZ4Q31.sim.cir ****
.END

**** 10/26/17 13:08:30 ********* PSpice 9.2 (Mar 2000) ******** ID# 0 ********

 ** Profile: "SCHEMATIC1-AZ4Q31"  [ D:\DOCUMENTS\POLYTECHNIC\TERM 3\ELECTRICAL CIRCUITS LAB\AZ4\AZ4 Q3\az4q3-SCHEMATIC1-AZ4Q31.sim ] 


 ****     SMALL SIGNAL BIAS SOLUTION       TEMPERATURE =   27.000 DEG C


******************************************************************************



 NODE   VOLTAGE     NODE   VOLTAGE     NODE   VOLTAGE     NODE   VOLTAGE


(N00147)    0.0000 (N00181)    0.0000 




    VOLTAGE SOURCE CURRENTS
    NAME         CURRENT

    V_V1         0.000E+00

    TOTAL POWER DISSIPATION   0.00E+00  WATTS



          JOB CONCLUDED

          TOTAL JOB TIME             .11
