
**** 10/21/17 11:52:08 ********* PSpice 9.2 (Mar 2000) ******** ID# 0 ********

 ** Profile: "SCHEMATIC1-AZ4"  [ D:\DOCUMENTS\POLYTECHNIC\TERM 3\Electrical Circuits Lab\az4-SCHEMATIC1-AZ4.sim ] 


 ****     CIRCUIT DESCRIPTION


******************************************************************************




** Creating circuit file "az4-SCHEMATIC1-AZ4.sim.cir" 
** WARNING: THIS AUTOMATICALLY GENERATED FILE MAY BE OVERWRITTEN BY SUBSEQUENT SIMULATIONS

*Libraries: 
* Local Libraries :
* From [PSPICE NETLIST] section of C:\Program Files\Orcad\PSpice\PSpice.ini file:
.lib "nom.lib" 

*Analysis directives: 
.PROBE V(*) I(*) W(*) D(*) NOISE(*) 
.INC ".\az4-SCHEMATIC1.net" 



**** INCLUDING az4-SCHEMATIC1.net ****
* source AZ4
C_C1         0 N00225  10uf  
L_L1         N00225 N00225  10mH  
R_R1         N00225 3  2k  
R_R2         5 3  9k  
R_R3         0 5  4k  
R_R4         4 3  4k  
R_R5         0 4  2k  
V_V1         N00225 0 15Vdc

**** RESUMING az4-SCHEMATIC1-AZ4.sim.cir ****
.END

ERROR -- Voltage source and/or inductor loop involving L_L1
You may break the loop by adding a series resistance