
**** 10/26/17 12:51:00 ********* PSpice 9.2 (Mar 2000) ******** ID# 0 ********

 ** Profile: "SCHEMATIC1-AZ4Q21"  [ D:\DOCUMENTS\POLYTECHNIC\TERM 3\ELECTRICAL CIRCUITS LAB\AZ4\AZ4 Q2\az4q21-SCHEMATIC1-AZ4Q21.sim ]


 ****     CIRCUIT DESCRIPTION


******************************************************************************




** Creating circuit file "az4q21-SCHEMATIC1-AZ4Q21.sim.cir" 
** WARNING: THIS AUTOMATICALLY GENERATED FILE MAY BE OVERWRITTEN BY SUBSEQUENT SIMULATIONS

*Libraries: 
* Local Libraries :
* From [PSPICE NETLIST] section of C:\Program Files\Orcad\PSpice\PSpice.ini file:
.lib "nom.lib" 

*Analysis directives: 
.DC DEC PARAM a 100 100k 20 
.PROBE V(*) I(*) W(*) D(*) NOISE(*) 
.INC ".\az4q21-SCHEMATIC1.net" 



**** INCLUDING az4q21-SCHEMATIC1.net ****
* source AZ4Q21
V_V1         N00337 N00821 15Vdc
R_R5         VA 0  {a}  
R_R1         VA N00337  2.2k  
R_R2         0 N00337  3.3k  
R_R3         N00821 VA  4.7k  
R_R4         N00821 0  1.8k  
.PARAM  a=1k

**** RESUMING az4q21-SCHEMATIC1-AZ4Q21.sim.cir ****
.END


          JOB CONCLUDED

          TOTAL JOB TIME             .02
